************************************************************************
* auCdl Netlist:
* 
* Library Name:  ROD
* Top Cell Name: test_pmos
* View Name:     schematic
* Netlisted on:  Jul 21 10:43:00 2021
************************************************************************

.INCLUDE  /PDK/TSMC/28HPC-PLUS-RF/PDK/TSMC-iPDK/tsmcN28/../Calibre/lvs/source.added
*.EQUATION
*.SCALE METER
*.MEGA
.PARAM



************************************************************************
* Library Name: ROD
* Cell Name:    test_pmos
* View Name:    schematic
************************************************************************

.SUBCKT test_pmos VDD Vin Vout
*.PININFO Vin:I VDD:B Vout:B
MM0 Vout Vin VDD VDD pch_18_mac l=150n w=320n m=1 nf=1
.ENDS

