************************************************************************
* auCdl Netlist:
* 
* Library Name:  ROD
* Top Cell Name: test_cap
* View Name:     schematic
* Netlisted on:  Jul 28 11:25:20 2021
************************************************************************

.INCLUDE  /PDK/TSMC/28HPC-PLUS-RF/PDK/TSMC-iPDK/tsmcN28/../Calibre/lvs/source.added
*.EQUATION
*.SCALE METER
*.MEGA
.PARAM



************************************************************************
* Library Name: ROD
* Cell Name:    test_cap
* View Name:    schematic
************************************************************************

.SUBCKT test_cap Vg Vsd
*.PININFO Vg:B Vsd:B
XC0 Vg Vsd nmoscap lr=400n wr=1u m=1
.ENDS

